Test Cases/dist_opf_case33_ieee.m
function [baseMVA,bus,busPmax,busPmin,busQmax,busQmin,busPG,busQG,gen,branch, PBase ,PFBase,busLoadImportant,w_gen] = dist_opf_case33_ieee
%DIST_OPF_CASE33_IEEE   Defines the reliability test system data of the IEEE 33-Bus
%   重写规范完全参照 RTS79_1 格式，所有缺失数据均已直接硬编码补全，每一行各不相同且完全固定。

[PQ, PV, REF, BUS_I, BUS_TYPE, PD, QD, GS, BS, BUS_AREA, VM, ...
	VA, BASE_KV, VMAX, VMIN, PGMAX,PGMIN,QGMAX,QGMIN,PG,QG,LOLP,LOLE,LOLF,LOLD,EDNS,EENS,...
    LAM_P,LAM_Q,MU_VMAX,MU_VMIN,MU_PMAX,MU_PMIN,MU_QMAX,MU_QMIN] = idx_bus;
[GEN_BUS, GEN_PMAX, GEN_PMIN, GEN_QMAX, GEN_QMIN, GEN_STATUS, ...
	GEN_LAMDA,GEN_MTTF,GEN_PG,GEN_QG,GEN_PFAILURE] = idx_gen;
[F_BUS, T_BUS, BR_R, BR_X, BR_B, RATE, TAP, SHIFT_ANGLE, BR_STATUS, BR_LAMDA,...
        BR_MTTF,TCSC_X, BR_PFAILURE, PF, QF, PT, QT, MU_SF, MU_ST, KT_MAXANGLE_TPST,KT_MINANGLE_TPST,KT_MAX_X_TCSC,KT_MIN_X_TCSC] = idx_brch;
[NEWTON,FDFP_XB,FDFP_BX,DCPF] = idx_powerflow;

%% system MVA base  
baseMVA = 100.0000;

%% bus data
% 原始负荷为 kW/kVAr，在矩阵定义后统一转换为 MW/MVAR
bus = [
	1	3	0	0	0	0	1	1	0	12.66	1.1	0.9;
	2	1	100	60	0	0	1	1	0	12.66	1.1	0.9;
	3	1	90	40	0	0	1	1	0	12.66	1.1	0.9;
	4	1	120	80	0	0	1	1	0	12.66	1.1	0.9;
	5	1	60	30	0	0	1	1	0	12.66	1.1	0.9;
	6	1	60	20	0	0	1	1	0	12.66	1.1	0.9;
	7	1	200	100	0	0	1	1	0	12.66	1.1	0.9;
	8	1	200	100	0	0	1	1	0	12.66	1.1	0.9;
	9	1	60	20	0	0	1	1	0	12.66	1.1	0.9;
	10	1	60	20	0	0	1	1	0	12.66	1.1	0.9;
	11	1	45	30	0	0	1	1	0	12.66	1.1	0.9;
	12	1	60	35	0	0	1	1	0	12.66	1.1	0.9;
	13	1	60	35	0	0	1	1	0	12.66	1.1	0.9;
	14	1	120	80	0	0	1	1	0	12.66	1.1	0.9;
	15	1	60	10	0	0	1	1	0	12.66	1.1	0.9;
	16	1	60	20	0	0	1	1	0	12.66	1.1	0.9;
	17	1	60	20	0	0	1	1	0	12.66	1.1	0.9;
	18	1	90	40	0	0	1	1	0	12.66	1.1	0.9;
	19	1	90	40	0	0	1	1	0	12.66	1.1	0.9;
	20	1	90	40	0	0	1	1	0	12.66	1.1	0.9;
	21	1	90	40	0	0	1	1	0	12.66	1.1	0.9;
	22	1	90	40	0	0	1	1	0	12.66	1.1	0.9;
	23	1	90	50	0	0	1	1	0	12.66	1.1	0.9;
	24	1	420	200	0	0	1	1	0	12.66	1.1	0.9;
	25	1	420	200	0	0	1	1	0	12.66	1.1	0.9;
	26	1	60	25	0	0	1	1	0	12.66	1.1	0.9;
	27	1	60	25	0	0	1	1	0	12.66	1.1	0.9;
	28	1	60	20	0	0	1	1	0	12.66	1.1	0.9;
	29	1	120	70	0	0	1	1	0	12.66	1.1	0.9;
	30	1	200	600	0	0	1	1	0	12.66	1.1	0.9;
	31	1	150	70	0	0	1	1	0	12.66	1.1	0.9;
	32	1	210	100	0	0	1	1	0	12.66	1.1	0.9;
	33	1	60	40	0	0	1	1	0	12.66	1.1	0.9;
];

%% Bus Load Importance Data (硬编码差异化常量数值)
%   列定义: 1:bus_number, 2:LOAD I权重, 3:LOAD II权重, 4:LOAD III权重
busLoadImportant = [
	1	1.12	0.88	0.95;
	2	0.95	1.21	1.04;
	3	1.34	0.76	1.15;
	4	0.88	1.05	0.91;
	5	1.02	1.18	1.28;
	6	1.21	0.93	0.79;
	7	0.76	1.32	1.06;
	8	1.15	0.84	1.22;
	9	0.91	1.09	0.87;
	10	1.27	0.72	1.13;
	11	0.83	1.26	0.98;
	12	1.06	0.91	1.34;
	13	1.19	1.14	0.76;
	14	0.74	0.83	1.21;
	15	1.31	1.07	0.89;
	16	0.89	1.29	1.02;
	17	1.04	0.78	1.17;
	18	1.23	1.12	0.93;
	19	0.78	0.96	1.31;
	20	1.11	1.24	0.85;
	21	0.96	0.81	1.09;
	22	1.28	1.19	0.74;
	23	0.82	0.73	1.26;
	24	1.07	1.35	1.01;
	25	1.14	0.89	1.18;
	26	0.73	1.02	0.82;
	27	1.35	1.16	1.24;
	28	0.85	0.74	0.95;
	29	1.09	1.28	1.11;
	30	1.22	0.91	0.77;
	31	0.77	1.08	1.33;
	32	1.16	1.33	0.86;
	33	1.01	0.85	1.08;
];

%% generator data
% 节点1馈口对应的发电机参数，第7、8列已填入固定的故障率与修复时间
gen = [    
	1	100.0000	0.0000	60.00000	-60.0000	1	0.4500	15.0000	0.0000	0.0000	0	0	0	0	0	0	0	0	0	0	0;
];

%% branch data
% 第10列为 BR_LAMDA (各行互不相同的固定值)
% 第11列为 BR_MTTF  (各行互不相同的固定值)
% 第12列为 TCSC (固定为0)
branch = [
	1	2	0.0922	0.0470	0	15.0	0	0	1	0.21	5.4	0;
	2	3	0.4930	0.2511	0	15.0	0	0	1	0.34	7.8	0;
	3	4	0.3660	0.1864	0	15.0	0	0	1	0.15	11.2	0;
	4	5	0.3811	0.1941	0	15.0	0	0	1	0.42	6.1	0;
	5	6	0.8190	0.7070	0	15.0	0	0	1	0.28	9.5	0;
	6	7	0.1872	0.6188	0	15.0	0	0	1	0.19	4.3	0;
	7	8	0.7114	0.2351	0	15.0	0	0	1	0.47	8.7	0;
	8	9	1.0300	0.7400	0	15.0	0	0	1	0.31	10.1	0;
	9	10	1.0440	0.7400	0	15.0	0	0	1	0.12	5.9	0;
	10	11	0.1966	0.0650	0	15.0	0	0	1	0.38	7.2	0;
	11	12	0.3744	0.1238	0	15.0	0	0	1	0.25	11.8	0;
	12	13	1.4680	1.1550	0	15.0	0	0	1	0.49	4.6	0;
	13	14	0.5416	0.7129	0	15.0	0	0	1	0.17	9.1	0;
	14	15	0.5910	0.5260	0	15.0	0	0	1	0.33	6.8	0;
	15	16	0.7463	0.5450	0	15.0	0	0	1	0.41	8.3	0;
	16	17	1.2890	1.7210	0	15.0	0	0	1	0.22	10.5	0;
	17	18	0.7320	0.5740	0	15.0	0	0	1	0.14	5.1	0;
	2	19	0.1640	0.1565	0	15.0	0	0	1	0.45	7.6	0;
	19	20	1.5042	1.3554	0	15.0	0	0	1	0.29	11.4	0;
	20	21	0.4095	0.4784	0	15.0	0	0	1	0.36	4.8	0;
	21	22	0.7089	0.9373	0	15.0	0	0	1	0.18	9.9	0;
	3	23	0.4512	0.3083	0	15.0	0	0	1	0.48	6.4	0;
	23	24	0.8980	0.7091	0	15.0	0	0	1	0.23	8.1	0;
	24	25	0.8960	0.7011	0	15.0	0	0	1	0.32	10.9	0;
	6	26	0.2030	0.1034	0	15.0	0	0	1	0.11	5.7	0;
	26	27	0.2842	0.1447	0	15.0	0	0	1	0.39	7.3	0;
	27	28	1.0590	0.9337	0	15.0	0	0	1	0.26	11.6	0;
	28	29	0.8042	0.7006	0	15.0	0	0	1	0.44	4.2	0;
	29	30	0.5075	0.2585	0	15.0	0	0	1	0.13	8.5	0;
	30	31	0.9744	0.9630	0	15.0	0	0	1	0.37	6.9	0;
	31	32	0.3105	0.3619	0	15.0	0	0	1	0.46	9.3	0;
	32	33	0.3410	0.5302	0	15.0	0	0	1	0.24	10.7	0;
];

% 扩展 branch 矩阵到 23 列以支持后续潮流及可靠性指标的计算存储 space
branch(end, 23) = 0;

%%-----  OPF Data  -----%%
%% generator cost data
% gencost = [
%     2	1500	0	3	0.11	5	150;
% ];

% 发电机运行权重因子固定常数
w_gen = 1.05;

%% 数据转换与标幺化计算
rate = 1.00;
bus(:,3) = (rate .* bus(:,3)) / 1000; % kW -> MW
bus(:,4) = (rate .* bus(:,4)) / 1000; % kVAr -> MVAR

% 线损计算与阻抗基准转换 (12.66kV基准电压)
Vbase = 12.66; 
Zbase = (Vbase^2) / baseMVA;
branch(:, 3) = branch(:, 3) / Zbase; % R p.u.
branch(:, 4) = branch(:, 4) / Zbase; % X p.u.

% 各种约束容量乘子调整
gen(:,2) = rate.*gen(:,2);
gen(:,3) = rate.*gen(:,3);
gen(:,9) = rate.*gen(:,9);
gen(:,4) = rate.*gen(:,4);
gen(:,5) = rate.*gen(:,5);
gen(:,10) = rate.*gen(:,10);

bus(:,13:32) = 0; 
busPmax = zeros(size(bus,1),1);
busPmin = zeros(size(bus,1),1);
busPG = zeros(size(bus,1),1);
busQmax = zeros(size(bus,1),1);
busQmin = zeros(size(bus,1),1);
busQG = zeros(size(bus,1),1);

% 计算发电机强迫停运率
gen(:,11) = 1-8760./(gen(:,7).*gen(:,8)+8760);

for i=1:size(bus,1)
    genindex = find(gen(:,1) == i);
    if(isempty(genindex) ~= 1)
        busPmax(i) = sum(gen(genindex,2));
        busPmin(i) = sum(gen(genindex,3));
        busPG(i)   = sum(gen(genindex,9));
        busQmax(i) = sum(gen(genindex,4));
        busQmin(i) = sum(gen(genindex,5));
        busQG(i)   = sum(gen(genindex,10));
    else
        busPmax(i) = 0;
        busPmin(i) = 0;
        busQmax(i) = 0;
        busQmin(i) = 0;
        busPG(i) = 0;
        busQG(i) = 0;
    end       
end   

bus(:,13) = busPmax;
bus(:,14) = busPmin;
bus(:,15) = busQmax;
bus(:,16) = busQmin;
bus(:,17) = busPG;
bus(:,18) = busQG;

% 计算支路不可用率
branch(:,13) = 1-8760./(branch(:,10).*branch(:,11)+8760);
branch(:,14:23) = 0.0;

% 计算系统基础状态可靠性概率
PBase = prod(1-gen(:,11));
PBase = PBase * prod(1-branch(:,13));
PFBase = sum(gen(:,7));
PFBase = PFBase + sum(branch(:,10));

end